endo-norcamphan
  -ISIS-            3D

  9 10  0  0  0  0  0  0  0  0  1 V2000
   14.1720   -4.1775   -0.0648 C   0  0  0  0  0  0  0  0  0  0  0  0
   14.0883   -4.5781    1.2006 C   0  0  0  0  0  0  0  0  0  0  0  0
   15.0380   -3.8797    1.8103 C   0  0  0  0  0  0  0  0  0  0  0  0
   16.2014   -4.3781    1.4099 C   0  0  0  0  0  0  0  0  0  0  0  0
   16.2837   -3.9867    0.1414 C   0  0  0  0  0  0  0  0  0  0  0  0
   15.1653   -3.2976   -0.0473 C   0  0  0  0  0  0  0  0  0  0  0  0
   14.9988   -2.7507    1.1369 C   0  0  0  0  0  0  0  0  0  0  0  0
   16.9716   -3.9757    2.2012 H   0  0  0  0  0  0  0  0  0  0  0  0
   16.3576   -5.1516    1.4099 Cl  0  0  0  0  0  0  0  0  0  0  0  0
  2  1  1  0  0  0  0
  3  2  1  0  0  0  0
  4  3  1  0  0  0  0
  5  4  1  0  0  0  0
  6  5  1  0  0  0  0
  6  1  1  0  0  0  0
  7  6  1  0  0  0  0
  7  3  1  0  0  0  0
  8  4  1  0  0  0  0
  9  4  1  0  0  0  0
M  END
