Pyridin (Kroehnke synthesis)
  -ISIS-            3D

  9  9  0  0  0  0  0  0  0  0  7 V2000
   15.7036   -6.5882    0.0000 C   0  0  0  0  0  0  0  0  0  0  0  0
   15.7036   -5.2582    0.0000 C   0  0  0  0  0  0  0  0  0  0  0  0
   16.8553   -4.5932    0.0000 C   0  0  0  0  0  0  0  0  0  0  0  0
   18.0072   -5.2582    0.0000 C   0  0  0  0  0  0  0  0  0  0  0  0
   18.0072   -6.5882    0.0000 C   0  0  0  0  0  0  0  0  0  0  0  0
   16.8553   -7.2532    0.0000 N   0  0  0  0  0  0  0  0  0  0  0  0
   16.8553   -3.2632    0.0000 C   0  0  0  0  0  0  0  0  0  0  0  0
   14.5518   -7.2532    0.0000 C   0  0  0  0  0  0  0  0  0  0  0  0
   19.1590   -7.2532    0.0000 C   0  0  0  0  0  0  0  0  0  0  0  0
  2  1  1  0  0  0  0
  3  2  1  0  0  0  0
  4  3  1  0  0  0  0
  5  4  2  0  0  0  0
  6  1  2  0  0  0  0
  6  5  1  0  0  0  0
  7  3  1  0  0  0  0
  8  1  1  0  0  0  0
  9  5  1  0  0  0  0
A    7
R
A    8
R
A    9
R
M  END
